L_1YET
  rDOCK(R)          3D
libRbt.so/2013.1/901 2013/11/27
 44 45  0  0  0  0  0  0  0  0999 V2000
   37.9410   10.1201   20.3568 O   0  0  0  0  0  0
   32.9667   12.3086   24.1653 O   0  0  0  0  0  0
   31.0413   10.3327   24.3449 O   0  0  0  0  0  0
   29.8771   10.3449   26.3256 O   0  0  0  0  0  0
   33.4520    4.9868   28.4895 O   0  0  0  0  0  0
   35.8397    6.5810   28.9130 O   0  0  0  0  0  0
   34.9709    3.9924   24.2253 O   0  0  0  0  0  0
   33.7487    4.8398   21.9459 O   0  0  0  0  0  0
   38.2784    7.2637   23.1178 O   0  0  0  0  0  0
   37.0951    8.0972   20.9174 N   0  0  0  0  0  0
   28.8728   10.7541   24.3402 N   0  0  0  0  0  0
   37.4705    9.4243   21.2240 C   0  0  0  0  0  0
   37.3542    9.8930   22.6423 C   0  0  0  0  0  0
   36.1319    9.9368   23.2336 C   0  0  0  0  0  0
   35.8686   10.3713   24.6022 C   0  0  0  0  0  0
   34.6787   10.7862   25.0846 C   0  0  0  0  0  0
   33.3857   10.8985   24.3561 C   0  0  0  0  0  0
   32.1921   10.1518   25.1026 C   0  0  0  0  0  0
   32.4568    8.5512   25.3004 C   0  0  0  0  0  0
   32.4409    8.0160   26.5113 C   0  0  0  0  0  0
   32.6089    6.5779   26.9032 C   0  0  0  0  0  0
   33.5651    6.3732   28.0890 C   0  0  0  0  0  0
   35.0129    6.7194   27.7377 C   0  0  0  0  0  0
   35.6179    5.8075   26.6742 C   0  0  0  0  0  0
   37.0669    6.1402   26.2433 C   0  0  0  0  0  0
   37.5353    5.3321   24.9844 C   0  0  0  0  0  0
   36.7053    5.6298   23.7698 C   0  0  0  0  0  0
   35.5549    5.0422   23.4235 C   0  0  0  0  0  0
   34.8002    5.4139   22.2119 C   0  0  0  0  0  0
   35.3147    6.4740   21.3403 C   0  0  0  0  0  0
   36.4599    7.0870   21.6344 C   0  0  0  0  0  0
   37.2192    6.6950   22.8623 C   0  0  0  0  0  0
   38.6332   10.3161   23.2948 C   0  0  0  0  0  0
   33.8632   13.1280   23.3341 C   0  0  0  0  0  0
   29.9181   10.4667   25.1242 C   0  0  0  0  0  0
   32.6687    7.7447   24.0174 C   0  0  0  0  0  0
   31.2008    6.0537   27.2617 C   0  0  0  0  0  0
   35.5837    7.6083   29.9212 C   0  0  0  0  0  0
   37.2136    7.6209   26.0444 C   0  0  0  0  0  0
   34.7669    2.6397   23.7908 C   0  0  0  0  0  0
   34.1487    4.4240   27.9808 H   0  0  0  0  0  0
   37.3449    7.8171   19.9582 H   0  0  0  0  0  0
   29.0009   10.8392   23.3218 H   0  0  0  0  0  0
   27.9399   10.8903   24.7552 H   0  0  0  0  0  0
  1 12  2  0  0  0
  2 17  1  0  0  0
  2 34  1  0  0  0
  3 18  1  0  0  0
  3 35  1  0  0  0
  4 35  2  0  0  0
  5 22  1  0  0  0
  6 23  1  0  0  0
  6 38  1  0  0  0
  7 28  1  0  0  0
  7 40  1  0  0  0
  8 29  2  0  0  0
  9 32  2  0  0  0
 10 12  1  0  0  0
 10 31  1  0  0  0
 11 35  1  0  0  0
 12 13  1  0  0  0
 13 14  2  0  0  0
 13 33  1  0  0  0
 14 15  1  0  0  0
 15 16  2  0  0  0
 16 17  1  0  0  0
 17 18  1  0  0  0
 18 19  1  0  0  0
 19 20  2  0  0  0
 19 36  1  0  0  0
 20 21  1  0  0  0
 21 22  1  0  0  0
 21 37  1  0  0  0
 22 23  1  0  0  0
 23 24  1  0  0  0
 24 25  1  0  0  0
 25 26  1  0  0  0
 25 39  1  0  0  0
 26 27  1  0  0  0
 27 28  2  0  0  0
 27 32  1  0  0  0
 28 29  1  0  0  0
 29 30  1  0  0  0
 30 31  2  0  0  0
 31 32  1  0  0  0
  5 41  1  0  0  0
 10 42  1  0  0  0
 11 43  1  0  0  0
 11 44  1  0  0  0
M  END
>  <CHROM.0>
63.72567639,-55.11216597,55.07397891,-42.58042404,-177.22439174,-68.06314532

>  <CHROM.1>
63.38807729,-144.45594018,-5.41845603,90.95100409,-69.99971130,-116.75451973
34.63880947,7.91612429,24.63592847,-0.06237088,0.62126689,-0.62938930

>  <Name>
L_1YET

>  <RI>
0

>  <Rbt.Current_Directory>
/data/SOFT/rDock_2013.1_src_DAG/bin

>  <Rbt.Executable>
rbdock ($Id: //depot/dev/client3/rdock/2013.1/src/exe/rbdock.cxx#4 $)

>  <Rbt.Library>
libRbt.so (2013.1, Build901 2013/11/27)

>  <Rbt.Parameter_File>
/marc/data/SOFT/rDock_2013.1_src_DAG/data/scripts/dock.prm

>  <Rbt.Receptor>
1YET_test.prm

>  <SCORE>
-37.5851

>  <SCORE.INTER>
-20.2029

>  <SCORE.INTER.CONST>
1

>  <SCORE.INTER.POLAR>
-1.89079

>  <SCORE.INTER.REPUL>
0

>  <SCORE.INTER.ROT>
5

>  <SCORE.INTER.VDW>
-24.1742

>  <SCORE.INTER.norm>
-0.505073

>  <SCORE.INTRA>
-7.37396

>  <SCORE.INTRA.DIHEDRAL>
-2.33075

>  <SCORE.INTRA.DIHEDRAL.0>
15.3889

>  <SCORE.INTRA.POLAR>
0

>  <SCORE.INTRA.POLAR.0>
0

>  <SCORE.INTRA.REPUL>
0

>  <SCORE.INTRA.REPUL.0>
0

>  <SCORE.INTRA.VDW>
-6.20859

>  <SCORE.INTRA.VDW.0>
7.09596

>  <SCORE.INTRA.norm>
-0.184349

>  <SCORE.RESTR>
0.00619388

>  <SCORE.RESTR.CAVITY>
0

>  <SCORE.RESTR.PHARMA>
0.00619388

>  <SCORE.RESTR.PHARMA.con_1>
0.00619388

>  <SCORE.RESTR.PHARMA.con_2>
0

>  <SCORE.RESTR.norm>
0.000154847

>  <SCORE.SYSTEM>
-10.0145

>  <SCORE.SYSTEM.CONST>
0

>  <SCORE.SYSTEM.DIHEDRAL>
1.27896

>  <SCORE.SYSTEM.POLAR>
-2.87353

>  <SCORE.SYSTEM.VDW>
-0.88392

>  <SCORE.SYSTEM.norm>
-0.250361

>  <SCORE.heavy>
40

>  <SCORE.norm>
-0.939628

$$$$
L_1YET
  rDOCK(R)          3D
libRbt.so/2013.1/901 2013/11/27
 44 45  0  0  0  0  0  0  0  0999 V2000
   38.5319   10.5652   20.1469 O   0  0  0  0  0  0
   33.2841   12.6447   23.6359 O   0  0  0  0  0  0
   31.3470   10.6724   23.5997 O   0  0  0  0  0  0
   30.0071   10.3209   25.4326 O   0  0  0  0  0  0
   33.4231    5.1779   27.7311 O   0  0  0  0  0  0
   35.7742    6.7463   28.3906 O   0  0  0  0  0  0
   35.2629    4.3226   23.5642 O   0  0  0  0  0  0
   34.2207    5.2524   21.2283 O   0  0  0  0  0  0
   38.6515    7.6150   22.8261 O   0  0  0  0  0  0
   37.6420    8.5281   20.5714 N   0  0  0  0  0  0
   29.1745   11.0466   23.4584 N   0  0  0  0  0  0
   37.9951    9.8424   20.9511 C   0  0  0  0  0  0
   37.7711   10.2631   22.3716 C   0  0  0  0  0  0
   36.5071   10.2921   22.8687 C   0  0  0  0  0  0
   36.1404   10.6809   24.2271 C   0  0  0  0  0  0
   34.9178   11.0844   24.6309 C   0  0  0  0  0  0
   33.6847   11.2272   23.8098 C   0  0  0  0  0  0
   32.4360   10.4607   24.4366 C   0  0  0  0  0  0
   32.6819    8.8532   24.5992 C   0  0  0  0  0  0
   32.5722    8.2771   25.7862 C   0  0  0  0  0  0
   32.7071    6.8258   26.1404 C   0  0  0  0  0  0
   33.5692    6.5766   27.3882 C   0  0  0  0  0  0
   35.0402    6.9282   27.1609 C   0  0  0  0  0  0
   35.7234    6.0504   26.1162 C   0  0  0  0  0  0
   37.2018    6.3912   25.8093 C   0  0  0  0  0  0
   37.7639    5.6243   24.5629 C   0  0  0  0  0  0
   37.0301    5.9668   23.2993 C   0  0  0  0  0  0
   35.9086    5.3965   22.8460 C   0  0  0  0  0  0
   35.2497    5.8125   21.5935 C   0  0  0  0  0  0
   35.8315    6.8994   20.8007 C   0  0  0  0  0  0
   36.9518    7.4970   21.2025 C   0  0  0  0  0  0
   37.6139    7.0601   22.4709 C   0  0  0  0  0  0
   38.9971   10.6580   23.1342 C   0  0  0  0  0  0
   32.4662   12.9296   22.4459 C   0  0  0  0  0  0
   30.1534   10.6485   24.2789 C   0  0  0  0  0  0
   32.9902    8.0899   23.3093 C   0  0  0  0  0  0
   31.2747    6.2960   26.3718 C   0  0  0  0  0  0
   35.4624    7.7551   29.4018 C   0  0  0  0  0  0
   37.3660    7.8772   25.6731 C   0  0  0  0  0  0
   33.8899    4.3192   23.9830 C   0  0  0  0  0  0
   33.9852    4.9687   28.5685 H   0  0  0  0  0  0
   37.9641    8.2798   19.6251 H   0  0  0  0  0  0
   29.3920   11.3083   22.4862 H   0  0  0  0  0  0
   28.2034   11.0912   23.7989 H   0  0  0  0  0  0
  1 12  2  0  0  0
  2 17  1  0  0  0
  2 34  1  0  0  0
  3 18  1  0  0  0
  3 35  1  0  0  0
  4 35  2  0  0  0
  5 22  1  0  0  0
  6 23  1  0  0  0
  6 38  1  0  0  0
  7 28  1  0  0  0
  7 40  1  0  0  0
  8 29  2  0  0  0
  9 32  2  0  0  0
 10 12  1  0  0  0
 10 31  1  0  0  0
 11 35  1  0  0  0
 12 13  1  0  0  0
 13 14  2  0  0  0
 13 33  1  0  0  0
 14 15  1  0  0  0
 15 16  2  0  0  0
 16 17  1  0  0  0
 17 18  1  0  0  0
 18 19  1  0  0  0
 19 20  2  0  0  0
 19 36  1  0  0  0
 20 21  1  0  0  0
 21 22  1  0  0  0
 21 37  1  0  0  0
 22 23  1  0  0  0
 23 24  1  0  0  0
 24 25  1  0  0  0
 25 26  1  0  0  0
 25 39  1  0  0  0
 26 27  1  0  0  0
 27 28  2  0  0  0
 27 32  1  0  0  0
 28 29  1  0  0  0
 29 30  1  0  0  0
 30 31  2  0  0  0
 31 32  1  0  0  0
  5 41  1  0  0  0
 10 42  1  0  0  0
 11 43  1  0  0  0
 11 44  1  0  0  0
M  END
>  <CHROM.0>
63.96715807,-58.23445989,-65.52068210,70.90681902,6.94459713,-68.01065900

>  <CHROM.1>
155.78581834,-150.67795275,-8.82801524,-179.79777339,-71.10656974,125.35569746
34.82625897,8.24023433,24.09539832,0.02429378,0.50710776,-0.66117514

>  <Name>
L_1YET

>  <RI>
0

>  <Rbt.Current_Directory>
/data/SOFT/rDock_2013.1_src_DAG/bin

>  <Rbt.Executable>
rbdock ($Id: //depot/dev/client3/rdock/2013.1/src/exe/rbdock.cxx#4 $)

>  <Rbt.Library>
libRbt.so (2013.1, Build901 2013/11/27)

>  <Rbt.Parameter_File>
/marc/data/SOFT/rDock_2013.1_src_DAG/data/scripts/dock.prm

>  <Rbt.Receptor>
1YET_test.prm

>  <SCORE>
-43.5386

>  <SCORE.INTER>
-23.9259

>  <SCORE.INTER.CONST>
1

>  <SCORE.INTER.POLAR>
-1.98655

>  <SCORE.INTER.REPUL>
0

>  <SCORE.INTER.ROT>
5

>  <SCORE.INTER.VDW>
-27.5717

>  <SCORE.INTER.norm>
-0.598148

>  <SCORE.INTRA>
-9.35517

>  <SCORE.INTRA.DIHEDRAL>
-4.98713

>  <SCORE.INTRA.DIHEDRAL.0>
15.3889

>  <SCORE.INTRA.POLAR>
0

>  <SCORE.INTRA.POLAR.0>
0

>  <SCORE.INTRA.REPUL>
0

>  <SCORE.INTRA.REPUL.0>
0

>  <SCORE.INTRA.VDW>
-6.86161

>  <SCORE.INTRA.VDW.0>
7.09596

>  <SCORE.INTRA.norm>
-0.233879

>  <SCORE.RESTR>
0.23779

>  <SCORE.RESTR.CAVITY>
0

>  <SCORE.RESTR.PHARMA>
0.23779

>  <SCORE.RESTR.PHARMA.con_1>
0.23779

>  <SCORE.RESTR.PHARMA.con_2>
0

>  <SCORE.RESTR.norm>
0.00594475

>  <SCORE.SYSTEM>
-10.4953

>  <SCORE.SYSTEM.CONST>
0

>  <SCORE.SYSTEM.DIHEDRAL>
0.84334

>  <SCORE.SYSTEM.POLAR>
-2.87192

>  <SCORE.SYSTEM.VDW>
-1.15239

>  <SCORE.SYSTEM.norm>
-0.262381

>  <SCORE.heavy>
40

>  <SCORE.norm>
-1.08846

$$$$
